dss/import/capas-pablo/Formato-plugin/urbano/Red_MT.txt
New Line.IDLinea153_IDTramos_1 bus1=1 bus2=77 length=15.281 units=m r1=0.000952086 r0=0.00109752 x1=0.00033682 x0=0.00172989 c1=0.0109851 c0=0.00359782 enabled=True phases=3
New Line.IDLinea154_IDTramos_2 bus1=2 bus2=3 length=5.281 units=m r1=0.000275299 r0=0.000420731 x1=0.000297103 x0=0.00169017 c1=0.0125692 c0=0.00375209 enabled=True phases=3
New Line.IDLinea158_IDTramos_3 bus1=123 bus2=4 length=112.788 units=m r1=0.00048417 r0=0.000629602 x1=0.000315326 x0=0.0017084 c1=0.0117887 c0=0.00367967 enabled=True phases=3
New Line.IDLinea159_IDTramos_4 bus1=80 bus2=5 length=35.059 units=m r1=0.00048417 r0=0.000629602 x1=0.000315326 x0=0.0017084 c1=0.0117887 c0=0.00367967 enabled=True phases=3
New Line.IDLinea184_IDTramos_5 bus1=48 bus2=51 length=16.275 units=m r1=0.000952086 r0=0.00109752 x1=0.00033682 x0=0.00172989 c1=0.0109851 c0=0.00359782 enabled=True phases=3
New Line.IDLinea185_IDTramos_6 bus1=6 bus2=60 length=196.542 units=m r1=0.000663124 r0=0.000808557 x1=0.000325502 x0=0.00171857 c1=0.0113939 c0=0.00364045 enabled=True phases=3
New Line.IDLinea186_IDTramos_7 bus1=61 bus2=57 length=28.644 units=m r1=0.000952086 r0=0.00109752 x1=0.00033682 x0=0.00172989 c1=0.0109851 c0=0.00359782 enabled=True phases=3
New Line.IDLinea187_IDTramos_8 bus1=58 bus2=7 length=17.695 units=m r1=0.000952086 r0=0.00109752 x1=0.00033682 x0=0.00172989 c1=0.0109851 c0=0.00359782 enabled=True phases=3
New Line.IDLinea188_IDTramos_9 bus1=17 bus2=36 length=4.909 units=m r1=0.000952086 r0=0.00109752 x1=0.00033682 x0=0.00172989 c1=0.0109851 c0=0.00359782 enabled=True phases=3
New Line.IDLinea189_IDTramos_10 bus1=18 bus2=19 length=15.029 units=m r1=0.000952086 r0=0.00109752 x1=0.00033682 x0=0.00172989 c1=0.0109851 c0=0.00359782 enabled=True phases=3
New Line.IDLinea190_IDTramos_11 bus1=105 bus2=8 length=2.431 units=m r1=0.000952086 r0=0.00109752 x1=0.00033682 x0=0.00172989 c1=0.0109851 c0=0.00359782 enabled=True phases=3
New Line.IDLinea190_IDTramos_12 bus1=8 bus2=27 length=12.015 units=m r1=0.000952086 r0=0.00109752 x1=0.00033682 x0=0.00172989 c1=0.0109851 c0=0.00359782 enabled=True phases=3
New Line.IDLinea191_IDTramos_13 bus1=29 bus2=31 length=18.212 units=m r1=0.000952086 r0=0.00109752 x1=0.00033682 x0=0.00172989 c1=0.0109851 c0=0.00359782 enabled=True phases=3
New Line.IDLinea176_IDTramos_14 bus1=95 bus2=66 length=29.435 units=m r1=0.000952086 r0=0.00109752 x1=0.00033682 x0=0.00172989 c1=0.0109851 c0=0.00359782 enabled=True phases=3
New Line.IDLinea183_IDTramos_15 bus1=9 bus2=25 length=300.634 units=m r1=0.000952086 r0=0.00109752 x1=0.00033682 x0=0.00172989 c1=0.0109851 c0=0.00359782 enabled=True phases=3
New Line.IDLinea241_IDTramos_16 bus1=91 bus2=85 length=7.26 units=m r1=0.00048417 r0=0.000629602 x1=0.000315326 x0=0.0017084 c1=0.0117887 c0=0.00367967 enabled=True phases=3
New Line.IDLinea245_IDTramos_17 bus1=88 bus2=89 length=82.876 units=m r1=0.00048417 r0=0.000629602 x1=0.000315326 x0=0.0017084 c1=0.0117887 c0=0.00367967 enabled=True phases=3
New Line.IDLinea247_IDTramos_18 bus1=93 bus2=10 length=9.551 units=m r1=0.000952086 r0=0.00109752 x1=0.00033682 x0=0.00172989 c1=0.0109851 c0=0.00359782 enabled=True phases=3
New Line.IDLinea285_IDTramos_19 bus1=52 bus2=54 length=5.499 units=m r1=0.000952086 r0=0.00109752 x1=0.00033682 x0=0.00172989 c1=0.0109851 c0=0.00359782 enabled=True phases=3
New Line.IDLinea287_IDTramos_20 bus1=35 bus2=11 length=107.469 units=m r1=0.000952086 r0=0.00109752 x1=0.00033682 x0=0.00172989 c1=0.0109851 c0=0.00359782 enabled=True phases=3
New Line.IDLinea288_IDTramos_21 bus1=46 bus2=64 length=22.837 units=m r1=0.000952086 r0=0.00109752 x1=0.00033682 x0=0.00172989 c1=0.0109851 c0=0.00359782 enabled=True phases=3
New Line.IDLinea289_IDTramos_22 bus1=45 bus2=62 length=19.521 units=m r1=0.000952086 r0=0.00109752 x1=0.00033682 x0=0.00172989 c1=0.0109851 c0=0.00359782 enabled=True phases=3
New Line.IDLinea663_IDTramos_23 bus1=99 bus2=101 length=22.218 units=m r1=0.000352234 r0=0.000497666 x1=0.000305055 x0=0.00169813 c1=0.0122161 c0=0.00372013 enabled=True phases=3
New Line.IDLinea664_IDTramos_24 bus1=103 bus2=12 length=158.78 units=m r1=0.000275299 r0=0.000420731 x1=0.000297103 x0=0.00169017 c1=0.0125692 c0=0.00375209 enabled=True phases=3
New Line.IDLinea664_IDTramos_25 bus1=12 bus2=13 length=69.404 units=m r1=0.000275299 r0=0.000420731 x1=0.000297103 x0=0.00169017 c1=0.0125692 c0=0.00375209 enabled=True phases=3
New Line.IDLinea665_IDTramos_26 bus1=13 bus2=2 length=387.989 units=m r1=0.000275299 r0=0.000420731 x1=0.000297103 x0=0.00169017 c1=0.0125692 c0=0.00375209 enabled=True phases=3
New Line.IDLinea666_IDTramos_27 bus1=2 bus2=120 length=26.083 units=m r1=0.000275299 r0=0.000420731 x1=0.000297103 x0=0.00169017 c1=0.0125692 c0=0.00375209 enabled=True phases=3
New Line.IDLinea667_IDTramos_28 bus1=137 bus2=94 length=102.941 units=m r1=0.000275299 r0=0.000420731 x1=0.000297103 x0=0.00169017 c1=0.0125692 c0=0.00375209 enabled=True phases=3
New Line.IDLinea668_IDTramos_29 bus1=95 bus2=14 length=94.851 units=m r1=0.000275299 r0=0.000420731 x1=0.000297103 x0=0.00169017 c1=0.0125692 c0=0.00375209 enabled=True phases=3
New Line.IDLinea669_IDTramos_30 bus1=14 bus2=15 length=150.482 units=m r1=0.000275299 r0=0.000420731 x1=0.000297103 x0=0.00169017 c1=0.0125692 c0=0.00375209 enabled=True phases=3
New Line.IDLinea669_IDTramos_31 bus1=15 bus2=42 length=4.348 units=m r1=0.000275299 r0=0.000420731 x1=0.000297103 x0=0.00169017 c1=0.0125692 c0=0.00375209 enabled=True phases=3
New Line.IDLinea670_IDTramos_32 bus1=42 bus2=16 length=220.821 units=m r1=0.000275299 r0=0.000420731 x1=0.000297103 x0=0.00169017 c1=0.0125692 c0=0.00375209 enabled=True phases=3
New Line.IDLinea671_IDTramos_33 bus1=16 bus2=17 length=21.214 units=m r1=0.000275299 r0=0.000420731 x1=0.000297103 x0=0.00169017 c1=0.0125692 c0=0.00375209 enabled=True phases=3
New Line.IDLinea672_IDTramos_34 bus1=17 bus2=18 length=121.287 units=m r1=0.000275299 r0=0.000420731 x1=0.000297103 x0=0.00169017 c1=0.0125692 c0=0.00375209 enabled=True phases=3
New Line.IDLinea673_IDTramos_35 bus1=18 bus2=104 length=66.333 units=m r1=0.000275299 r0=0.000420731 x1=0.000297103 x0=0.00169017 c1=0.0125692 c0=0.00375209 enabled=True phases=3
New Line.IDLinea674_IDTramos_36 bus1=19 bus2=20 length=108.244 units=m r1=0.000952086 r0=0.00109752 x1=0.00033682 x0=0.00172989 c1=0.0109851 c0=0.00359782 enabled=True phases=3
New Line.IDLinea674_IDTramos_37 bus1=20 bus2=33 length=86.812 units=m r1=0.000952086 r0=0.00109752 x1=0.00033682 x0=0.00172989 c1=0.0109851 c0=0.00359782 enabled=True phases=3
New Line.IDLinea675_IDTramos_38 bus1=105 bus2=84 length=76.506 units=m r1=0.000952086 r0=0.00109752 x1=0.00033682 x0=0.00172989 c1=0.0109851 c0=0.00359782 enabled=True phases=3
New Line.IDLinea676_IDTramos_39 bus1=84 bus2=21 length=10.337 units=m r1=0.000952086 r0=0.00109752 x1=0.00033682 x0=0.00172989 c1=0.0109851 c0=0.00359782 enabled=True phases=3
New Line.IDLinea676_IDTramos_40 bus1=21 bus2=26 length=458.628 units=m r1=0.000952086 r0=0.00109752 x1=0.00033682 x0=0.00172989 c1=0.0109851 c0=0.00359782 enabled=True phases=3
New Line.IDLinea677_IDTramos_41 bus1=26 bus2=22 length=7.948 units=m r1=0.000952086 r0=0.00109752 x1=0.00033682 x0=0.00172989 c1=0.0109851 c0=0.00359782 enabled=True phases=3
New Line.IDLinea678_IDTramos_42 bus1=22 bus2=23 length=53.335 units=m r1=0.000952086 r0=0.00109752 x1=0.00033682 x0=0.00172989 c1=0.0109851 c0=0.00359782 enabled=True phases=3
New Line.IDLinea678_IDTramos_43 bus1=23 bus2=24 length=5.39 units=m r1=0.000952086 r0=0.00109752 x1=0.00033682 x0=0.00172989 c1=0.0109851 c0=0.00359782 enabled=True phases=3
New Line.IDLinea679_IDTramos_44 bus1=25 bus2=26 length=29.239 units=m r1=0.000952086 r0=0.00109752 x1=0.00033682 x0=0.00172989 c1=0.0109851 c0=0.00359782 enabled=True phases=3
New Line.IDLinea680_IDTramos_45 bus1=27 bus2=28 length=281.24 units=m r1=0.000952086 r0=0.00109752 x1=0.00033682 x0=0.00172989 c1=0.0109851 c0=0.00359782 enabled=True phases=3
New Line.IDLinea681_IDTramos_46 bus1=28 bus2=29 length=103.385 units=m r1=0.000952086 r0=0.00109752 x1=0.00033682 x0=0.00172989 c1=0.0109851 c0=0.00359782 enabled=True phases=3
New Line.IDLinea682_IDTramos_47 bus1=29 bus2=30 length=272.43 units=m r1=0.000952086 r0=0.00109752 x1=0.00033682 x0=0.00172989 c1=0.0109851 c0=0.00359782 enabled=True phases=3
New Line.IDLinea683_IDTramos_48 bus1=31 bus2=32 length=35.538 units=m r1=0.000952086 r0=0.00109752 x1=0.00033682 x0=0.00172989 c1=0.0109851 c0=0.00359782 enabled=True phases=3
New Line.IDLinea684_IDTramos_49 bus1=33 bus2=34 length=236.711 units=m r1=0.000952086 r0=0.00109752 x1=0.00033682 x0=0.00172989 c1=0.0109851 c0=0.00359782 enabled=True phases=3
New Line.IDLinea685_IDTramos_50 bus1=34 bus2=35 length=190.777 units=m r1=0.000952086 r0=0.00109752 x1=0.00033682 x0=0.00172989 c1=0.0109851 c0=0.00359782 enabled=True phases=3
New Line.IDLinea686_IDTramos_51 bus1=36 bus2=37 length=8.23 units=m r1=0.000952086 r0=0.00109752 x1=0.00033682 x0=0.00172989 c1=0.0109851 c0=0.00359782 enabled=True phases=3
New Line.IDLinea687_IDTramos_52 bus1=37 bus2=38 length=119.377 units=m r1=0.000952086 r0=0.00109752 x1=0.00033682 x0=0.00172989 c1=0.0109851 c0=0.00359782 enabled=True phases=3
New Line.IDLinea687_IDTramos_53 bus1=38 bus2=39 length=231.027 units=m r1=0.000952086 r0=0.00109752 x1=0.00033682 x0=0.00172989 c1=0.0109851 c0=0.00359782 enabled=True phases=3
New Line.IDLinea689_IDTramos_54 bus1=40 bus2=41 length=24.954 units=m r1=0.000663124 r0=0.000808557 x1=0.000325502 x0=0.00171857 c1=0.0113939 c0=0.00364045 enabled=True phases=3
New Line.IDLinea689_IDTramos_55 bus1=41 bus2=42 length=30.215 units=m r1=0.000663124 r0=0.000808557 x1=0.000325502 x0=0.00171857 c1=0.0113939 c0=0.00364045 enabled=True phases=3
New Line.IDLinea690_IDTramos_56 bus1=43 bus2=40 length=91.885 units=m r1=0.000663124 r0=0.000808557 x1=0.000325502 x0=0.00171857 c1=0.0113939 c0=0.00364045 enabled=True phases=3
New Line.IDLinea692_IDTramos_57 bus1=47 bus2=44 length=130.526 units=m r1=0.000663124 r0=0.000808557 x1=0.000325502 x0=0.00171857 c1=0.0113939 c0=0.00364045 enabled=True phases=3
New Line.IDLinea693_IDTramos_58 bus1=48 bus2=45 length=36.926 units=m r1=0.000663124 r0=0.000808557 x1=0.000325502 x0=0.00171857 c1=0.0113939 c0=0.00364045 enabled=True phases=3
New Line.IDLinea693_IDTramos_59 bus1=45 bus2=46 length=118.705 units=m r1=0.000663124 r0=0.000808557 x1=0.000325502 x0=0.00171857 c1=0.0113939 c0=0.00364045 enabled=True phases=3
New Line.IDLinea693_IDTramos_60 bus1=46 bus2=47 length=26.459 units=m r1=0.000663124 r0=0.000808557 x1=0.000325502 x0=0.00171857 c1=0.0113939 c0=0.00364045 enabled=True phases=3
New Line.IDLinea694_IDTramos_61 bus1=50 bus2=48 length=8.225 units=m r1=0.000663124 r0=0.000808557 x1=0.000325502 x0=0.00171857 c1=0.0113939 c0=0.00364045 enabled=True phases=3
New Line.IDLinea695_IDTramos_62 bus1=49 bus2=50 length=8.515 units=m r1=0.000663124 r0=0.000808557 x1=0.000325502 x0=0.00171857 c1=0.0113939 c0=0.00364045 enabled=True phases=3
New Line.IDLinea696_IDTramos_63 bus1=51 bus2=52 length=66.991 units=m r1=0.000952086 r0=0.00109752 x1=0.00033682 x0=0.00172989 c1=0.0109851 c0=0.00359782 enabled=True phases=3
New Line.IDLinea697_IDTramos_64 bus1=52 bus2=53 length=213.742 units=m r1=0.000952086 r0=0.00109752 x1=0.00033682 x0=0.00172989 c1=0.0109851 c0=0.00359782 enabled=True phases=3
New Line.IDLinea698_IDTramos_65 bus1=54 bus2=55 length=85.893 units=m r1=0.000952086 r0=0.00109752 x1=0.00033682 x0=0.00172989 c1=0.0109851 c0=0.00359782 enabled=True phases=3
New Line.IDLinea698_IDTramos_66 bus1=55 bus2=56 length=24.079 units=m r1=0.000952086 r0=0.00109752 x1=0.00033682 x0=0.00172989 c1=0.0109851 c0=0.00359782 enabled=True phases=3
New Line.IDLinea699_IDTramos_67 bus1=61 bus2=49 length=137.878 units=m r1=0.000663124 r0=0.000808557 x1=0.000325502 x0=0.00171857 c1=0.0113939 c0=0.00364045 enabled=True phases=3
New Line.IDLinea700_IDTramos_68 bus1=57 bus2=58 length=118.982 units=m r1=0.000952086 r0=0.00109752 x1=0.00033682 x0=0.00172989 c1=0.0109851 c0=0.00359782 enabled=True phases=3
New Line.IDLinea701_IDTramos_69 bus1=58 bus2=59 length=178.168 units=m r1=0.000952086 r0=0.00109752 x1=0.00033682 x0=0.00172989 c1=0.0109851 c0=0.00359782 enabled=True phases=3
New Line.IDLinea702_IDTramos_70 bus1=60 bus2=61 length=450.486 units=m r1=0.000663124 r0=0.000808557 x1=0.000325502 x0=0.00171857 c1=0.0113939 c0=0.00364045 enabled=True phases=3
New Line.IDLinea703_IDTramos_71 bus1=62 bus2=63 length=107.127 units=m r1=0.000952086 r0=0.00109752 x1=0.00033682 x0=0.00172989 c1=0.0109851 c0=0.00359782 enabled=True phases=3
New Line.IDLinea704_IDTramos_72 bus1=64 bus2=65 length=101.993 units=m r1=0.000952086 r0=0.00109752 x1=0.00033682 x0=0.00172989 c1=0.0109851 c0=0.00359782 enabled=True phases=3
New Line.IDLinea705_IDTramos_73 bus1=66 bus2=67 length=78.239 units=m r1=0.000952086 r0=0.00109752 x1=0.00033682 x0=0.00172989 c1=0.0109851 c0=0.00359782 enabled=True phases=3
New Line.IDLinea706_IDTramos_74 bus1=68 bus2=69 length=132.711 units=m r1=0.000952086 r0=0.00109752 x1=0.00033682 x0=0.00172989 c1=0.0109851 c0=0.00359782 enabled=True phases=3
New Line.IDLinea707_IDTramos_75 bus1=70 bus2=71 length=172.797 units=m r1=0.00048417 r0=0.000629602 x1=0.000315326 x0=0.0017084 c1=0.0117887 c0=0.00367967 enabled=True phases=3
New Line.IDLinea708_IDTramos_76 bus1=71 bus2=72 length=158.648 units=m r1=0.00048417 r0=0.000629602 x1=0.000315326 x0=0.0017084 c1=0.0117887 c0=0.00367967 enabled=True phases=3
New Line.IDLinea708_IDTramos_77 bus1=72 bus2=73 length=64.426 units=m r1=0.00048417 r0=0.000629602 x1=0.000315326 x0=0.0017084 c1=0.0117887 c0=0.00367967 enabled=True phases=3
New Line.IDLinea709_IDTramos_78 bus1=74 bus2=75 length=170.636 units=m r1=0.000952086 r0=0.00109752 x1=0.00033682 x0=0.00172989 c1=0.0109851 c0=0.00359782 enabled=True phases=3
New Line.IDLinea717_IDTramos_79 bus1=120 bus2=76 length=101.643 units=m r1=0.000275299 r0=0.000420731 x1=0.000297103 x0=0.00169017 c1=0.0125692 c0=0.00375209 enabled=True phases=3
New Line.IDLinea731_IDTramos_80 bus1=77 bus2=78 length=150.522 units=m r1=0.000952086 r0=0.00109752 x1=0.00033682 x0=0.00172989 c1=0.0109851 c0=0.00359782 enabled=True phases=3
New Line.IDLinea736_IDTramos_81 bus1=79 bus2=122 length=68.153 units=m r1=0.00048417 r0=0.000629602 x1=0.000315326 x0=0.0017084 c1=0.0117887 c0=0.00367967 enabled=True phases=3
New Line.IDLinea737_IDTramos_82 bus1=123 bus2=80 length=187.57 units=m r1=0.00048417 r0=0.000629602 x1=0.000315326 x0=0.0017084 c1=0.0117887 c0=0.00367967 enabled=True phases=3
New Line.IDLinea738_IDTramos_83 bus1=80 bus2=81 length=299.964 units=m r1=0.00048417 r0=0.000629602 x1=0.000315326 x0=0.0017084 c1=0.0117887 c0=0.00367967 enabled=True phases=3
New Line.IDLinea734_IDTramos_84 bus1=136 bus2=82 length=11.747 units=m r1=0.00048417 r0=0.000629602 x1=0.000315326 x0=0.0017084 c1=0.0117887 c0=0.00367967 enabled=True phases=3
New Line.IDLinea735_IDTramos_85 bus1=82 bus2=79 length=73.747 units=m r1=0.00048417 r0=0.000629602 x1=0.000315326 x0=0.0017084 c1=0.0117887 c0=0.00367967 enabled=True phases=3
New Line.IDLinea757_IDTramos_86 bus1=83 bus2=84 length=36.57 units=m r1=0.000952086 r0=0.00109752 x1=0.00033682 x0=0.00172989 c1=0.0109851 c0=0.00359782 enabled=True phases=3
New Line.IDLinea801_IDTramos_87 bus1=85 bus2=86 length=13.14 units=m r1=0.00048417 r0=0.000629602 x1=0.000315326 x0=0.0017084 c1=0.0117887 c0=0.00367967 enabled=True phases=3
New Line.IDLinea802_IDTramos_88 bus1=93 bus2=87 length=4.791 units=m r1=0.000952086 r0=0.00109752 x1=0.00033682 x0=0.00172989 c1=0.0109851 c0=0.00359782 enabled=True phases=3
New Line.IDLinea805_IDTramos_89 bus1=87 bus2=88 length=200.145 units=m r1=0.000952086 r0=0.00109752 x1=0.00033682 x0=0.00172989 c1=0.0109851 c0=0.00359782 enabled=True phases=3
New Line.IDLinea806_IDTramos_90 bus1=89 bus2=124 length=338.269 units=m r1=0.00048417 r0=0.000629602 x1=0.000315326 x0=0.0017084 c1=0.0117887 c0=0.00367967 enabled=True phases=3
New Line.IDLinea808_IDTramos_91 bus1=127 bus2=90 length=32.501 units=m r1=0.00048417 r0=0.000629602 x1=0.000315326 x0=0.0017084 c1=0.0117887 c0=0.00367967 enabled=True phases=3
New Line.IDLinea889_IDTramos_92 bus1=81 bus2=91 length=5.717 units=m r1=0.000952086 r0=0.00109752 x1=0.00033682 x0=0.00172989 c1=0.0109851 c0=0.00359782 enabled=True phases=3
New Line.IDLinea890_IDTramos_93 bus1=91 bus2=92 length=33.353 units=m r1=0.000952086 r0=0.00109752 x1=0.00033682 x0=0.00172989 c1=0.0109851 c0=0.00359782 enabled=True phases=3
New Line.IDLinea890_IDTramos_94 bus1=92 bus2=93 length=15.535 units=m r1=0.000952086 r0=0.00109752 x1=0.00033682 x0=0.00172989 c1=0.0109851 c0=0.00359782 enabled=True phases=3
New Line.IDLinea905_IDTramos_95 bus1=94 bus2=95 length=121.726 units=m r1=0.000275299 r0=0.000420731 x1=0.000297103 x0=0.00169017 c1=0.0125692 c0=0.00375209 enabled=True phases=3
New Line.IDLinea906_IDTramos_96 bus1=120 bus2=96 length=17.683 units=m r1=0.000952086 r0=0.00109752 x1=0.00033682 x0=0.00172989 c1=0.0109851 c0=0.00359782 enabled=True phases=3
New Line.IDLinea907_IDTramos_97 bus1=96 bus2=97 length=69.917 units=m r1=0.000952086 r0=0.00109752 x1=0.00033682 x0=0.00172989 c1=0.0109851 c0=0.00359782 enabled=True phases=3
New Line.IDLinea940_IDTramos_98 bus1=98 bus2=99 length=26.767 units=m r1=0.000352234 r0=0.000497666 x1=0.000305055 x0=0.00169813 c1=0.0122161 c0=0.00372013 enabled=True phases=3
New Line.IDLinea192_IDTramos_99 bus1=100 bus2=98 length=10.604 units=m r1=0.000352234 r0=0.000497666 x1=0.000305055 x0=0.00169813 c1=0.0122161 c0=0.00372013 enabled=True phases=3
New Line.IDLinea193_IDTramos_100 bus1=101 bus2=102 length=42.938 units=m r1=0.000275299 r0=0.000420731 x1=0.000297103 x0=0.00169017 c1=0.0125692 c0=0.00375209 enabled=True phases=3
New Line.IDLinea193_IDTramos_101 bus1=102 bus2=103 length=4.17 units=m r1=0.000275299 r0=0.000420731 x1=0.000297103 x0=0.00169017 c1=0.0125692 c0=0.00375209 enabled=True phases=3
New Line.IDLinea194_IDTramos_102 bus1=104 bus2=105 length=189.669 units=m r1=0.000952086 r0=0.00109752 x1=0.00033682 x0=0.00172989 c1=0.0109851 c0=0.00359782 enabled=True phases=3
New Line.IDLinea156_IDTramos_103 bus1=76 bus2=1 length=131.217 units=m r1=0.000952086 r0=0.00109752 x1=0.00033682 x0=0.00172989 c1=0.0109851 c0=0.00359782 enabled=True phases=3
New Line.IDLinea157_IDTramos_104 bus1=1 bus2=121 length=27.112 units=m r1=0.00048417 r0=0.000629602 x1=0.000315326 x0=0.0017084 c1=0.0117887 c0=0.00367967 enabled=True phases=3
New Line.IDLinea226_IDTramos_105 bus1=89 bus2=118 length=15.961 units=m r1=0.000952086 r0=0.00109752 x1=0.00033682 x0=0.00172989 c1=0.0109851 c0=0.00359782 enabled=True phases=3
New Line.IDLinea892_IDTramos_106 bus1=24 bus2=106 length=6.102 units=m r1=0.000952086 r0=0.00109752 x1=0.00033682 x0=0.00172989 c1=0.0109851 c0=0.00359782 enabled=True phases=3
New Line.IDLinea896_IDTramos_107 bus1=3 bus2=107 length=5.345 units=m r1=0.000275299 r0=0.000420731 x1=0.000297103 x0=0.00169017 c1=0.0125692 c0=0.00375209 enabled=True phases=3
New Line.IDLinea898_IDTramos_108 bus1=35 bus2=108 length=13.921 units=m r1=0.000952086 r0=0.00109752 x1=0.00033682 x0=0.00172989 c1=0.0109851 c0=0.00359782 enabled=True phases=3
New Line.IDLinea904_IDTramos_109 bus1=44 bus2=43 length=38.66 units=m r1=0.000663124 r0=0.000808557 x1=0.000325502 x0=0.00171857 c1=0.0113939 c0=0.00364045 enabled=True phases=3
New Line.IDLinea970_IDTramos_110 bus1=63 bus2=109 length=173.629 units=m r1=0.000952086 r0=0.00109752 x1=0.00033682 x0=0.00172989 c1=0.0109851 c0=0.00359782 enabled=True phases=3
New Line.IDLinea983_IDTramos_111 bus1=126 bus2=110 length=14.412 units=m r1=0.000952086 r0=0.00109752 x1=0.00033682 x0=0.00172989 c1=0.0109851 c0=0.00359782 enabled=True phases=3
New Line.IDLinea975_IDTramos_112 bus1=128 bus2=111 length=140.048 units=m r1=0.00048417 r0=0.000629602 x1=0.000315326 x0=0.0017084 c1=0.0117887 c0=0.00367967 enabled=True phases=3
New Line.IDLinea981_IDTramos_113 bus1=90 bus2=112 length=17.127 units=m r1=0.000952086 r0=0.00109752 x1=0.00033682 x0=0.00172989 c1=0.0109851 c0=0.00359782 enabled=True phases=3
New Line.IDLinea982_IDTramos_114 bus1=129 bus2=113 length=12.653 units=m r1=0.000952086 r0=0.00109752 x1=0.00033682 x0=0.00172989 c1=0.0109851 c0=0.00359782 enabled=True phases=3
New Line.IDLinea984_IDTramos_115 bus1=128 bus2=133 length=23.145 units=m r1=0.000952086 r0=0.00109752 x1=0.00033682 x0=0.00172989 c1=0.0109851 c0=0.00359782 enabled=True phases=3
New Line.IDLinea985_IDTramos_116 bus1=117 bus2=114 length=236.541 units=m r1=0.000952086 r0=0.00109752 x1=0.00033682 x0=0.00172989 c1=0.0109851 c0=0.00359782 enabled=True phases=3
New Line.IDLinea986_IDTramos_117 bus1=114 bus2=115 length=37.272 units=m r1=0.000952086 r0=0.00109752 x1=0.00033682 x0=0.00172989 c1=0.0109851 c0=0.00359782 enabled=True phases=3
New Line.IDLinea987_IDTramos_118 bus1=115 bus2=116 length=125.247 units=m r1=0.000952086 r0=0.00109752 x1=0.00033682 x0=0.00172989 c1=0.0109851 c0=0.00359782 enabled=True phases=3
New Line.IDLinea988_IDTramos_119 bus1=134 bus2=117 length=213.247 units=m r1=0.000952086 r0=0.00109752 x1=0.00033682 x0=0.00172989 c1=0.0109851 c0=0.00359782 enabled=True phases=3
New Line.IDLinea989_IDTramos_120 bus1=118 bus2=119 length=178.0 units=m r1=0.000952086 r0=0.00109752 x1=0.00033682 x0=0.00172989 c1=0.0109851 c0=0.00359782 enabled=True phases=3
New Line.IDLinea990_IDTramos_121 bus1=120 bus2=137 length=209.002 units=m r1=0.000275299 r0=0.000420731 x1=0.000297103 x0=0.00169017 c1=0.0125692 c0=0.00375209 enabled=True phases=3
New Line.IDLinea992_IDTramos_122 bus1=121 bus2=135 length=82.172 units=m r1=0.00048417 r0=0.000629602 x1=0.000315326 x0=0.0017084 c1=0.0117887 c0=0.00367967 enabled=True phases=3
New Line.IDLinea993_IDTramos_123 bus1=122 bus2=123 length=22.776 units=m r1=0.00048417 r0=0.000629602 x1=0.000315326 x0=0.0017084 c1=0.0117887 c0=0.00367967 enabled=True phases=3
New Line.IDLinea994_IDTramos_124 bus1=124 bus2=125 length=33.231 units=m r1=0.00048417 r0=0.000629602 x1=0.000315326 x0=0.0017084 c1=0.0117887 c0=0.00367967 enabled=True phases=3
New Line.IDLinea994_IDTramos_125 bus1=125 bus2=126 length=55.396 units=m r1=0.00048417 r0=0.000629602 x1=0.000315326 x0=0.0017084 c1=0.0117887 c0=0.00367967 enabled=True phases=3
New Line.IDLinea995_IDTramos_126 bus1=127 bus2=128 length=137.898 units=m r1=0.00048417 r0=0.000629602 x1=0.000315326 x0=0.0017084 c1=0.0117887 c0=0.00367967 enabled=True phases=3
New Line.IDLinea996_IDTramos_127 bus1=129 bus2=90 length=165.095 units=m r1=0.00048417 r0=0.000629602 x1=0.000315326 x0=0.0017084 c1=0.0117887 c0=0.00367967 enabled=True phases=3
New Line.IDLinea997_IDTramos_128 bus1=126 bus2=129 length=80.286 units=m r1=0.00048417 r0=0.000629602 x1=0.000315326 x0=0.0017084 c1=0.0117887 c0=0.00367967 enabled=True phases=3
New Line.IDLinea1030_IDTramos_129 bus1=110 bus2=130 length=187.139 units=m r1=0.000952086 r0=0.00109752 x1=0.00033682 x0=0.00172989 c1=0.0109851 c0=0.00359782 enabled=True phases=3
New Line.IDLinea1031_IDTramos_130 bus1=113 bus2=131 length=11.291 units=m r1=0.000952086 r0=0.00109752 x1=0.00033682 x0=0.00172989 c1=0.0109851 c0=0.00359782 enabled=True phases=3
New Line.IDLinea1032_IDTramos_131 bus1=112 bus2=132 length=229.251 units=m r1=0.000952086 r0=0.00109752 x1=0.00033682 x0=0.00172989 c1=0.0109851 c0=0.00359782 enabled=True phases=3
New Line.IDLinea1033_IDTramos_132 bus1=133 bus2=134 length=174.929 units=m r1=0.000952086 r0=0.00109752 x1=0.00033682 x0=0.00172989 c1=0.0109851 c0=0.00359782 enabled=True phases=3
New Line.IDLinea1040_IDTramos_133 bus1=135 bus2=136 length=285.379 units=m r1=0.00048417 r0=0.000629602 x1=0.000315326 x0=0.0017084 c1=0.0117887 c0=0.00367967 enabled=True phases=3
New Line.IDLinea180_IDTramos_134 bus1=137 bus2=70 length=27.969 units=m r1=0.00048417 r0=0.000629602 x1=0.000315326 x0=0.0017084 c1=0.0117887 c0=0.00367967 enabled=True phases=3
New Line.IDLinea181_IDTramos_135 bus1=137 bus2=74 length=14.417 units=m r1=0.000952086 r0=0.00109752 x1=0.00033682 x0=0.00172989 c1=0.0109851 c0=0.00359782 enabled=True phases=3
New Line.IDLinea182_IDTramos_136 bus1=95 bus2=68 length=22.295 units=m r1=0.000952086 r0=0.00109752 x1=0.00033682 x0=0.00172989 c1=0.0109851 c0=0.00359782 enabled=True phases=3
