dss/import/capas-pablo/Formato-plugin/urbano/Demanda_Escenario_01_2023_Caso_1.txt
New Load.Carga_IDSeta_10 phases=3 bus1=X_10.1.2.3.0 kv=0.38 kW=159.93389316287266 pf=0.9 status=variable model=1 CVRwatts=0.8 CVRvars=3 Class=1 daily=334 conn=wye
New Load.Carga_IDSeta_12 phases=3 bus1=X_12.1.2.3.0 kv=0.38 kW=217.15463621644122 pf=0.9 status=variable model=1 CVRwatts=0.8 CVRvars=3 Class=1 daily=334 conn=wye
New Load.Carga_IDSeta_128 phases=3 bus1=X_128.1.2.3.0 kv=0.38 kW=37.315652981576434 pf=0.9 status=variable model=1 CVRwatts=0.8 CVRvars=3 Class=1 daily=334 conn=wye
New Load.Carga_IDSeta_129 phases=3 bus1=X_129.1.2.3.0 kv=0.38 kW=38.34650093608925 pf=0.9 status=variable model=1 CVRwatts=0.8 CVRvars=3 Class=1 daily=334 conn=wye
New Load.Carga_IDSeta_13 phases=3 bus1=X_13.1.2.3.0 kv=0.38 kW=123.03167167014597 pf=0.9 status=variable model=1 CVRwatts=0.8 CVRvars=3 Class=1 daily=334 conn=wye
New Load.Carga_IDSeta_130 phases=3 bus1=X_130.1.2.3.0 kv=0.38 kW=34.50585314310512 pf=0.9 status=variable model=1 CVRwatts=0.8 CVRvars=3 Class=1 daily=334 conn=wye
New Load.Carga_IDSeta_131 phases=3 bus1=X_131.1.2.3.0 kv=0.38 kW=22.604266810124443 pf=0.9 status=variable model=1 CVRwatts=0.8 CVRvars=3 Class=1 daily=334 conn=wye
New Load.Carga_IDSeta_132 phases=3 bus1=X_132.1.2.3.0 kv=0.38 kW=44.105148568023765 pf=0.9 status=variable model=1 CVRwatts=0.8 CVRvars=3 Class=1 daily=334 conn=wye
New Load.Carga_IDSeta_14 phases=3 bus1=X_14.1.2.3.0 kv=0.38 kW=327.98160125210995 pf=0.9 status=variable model=1 CVRwatts=0.8 CVRvars=3 Class=1 daily=334 conn=wye
New Load.Carga_IDSeta_15 phases=3 bus1=X_15.1.2.3.0 kv=0.38 kW=146.20768313794474 pf=0.9 status=variable model=1 CVRwatts=0.8 CVRvars=3 Class=1 daily=334 conn=wye
New Load.Carga_IDSeta_2943 phases=3 bus1=X_2943.1.2.3.0 kv=0.38 kW=145.64501657521188 pf=0.9 status=variable model=1 CVRwatts=0.8 CVRvars=3 Class=1 daily=334 conn=wye
New Load.Carga_IDSeta_3 phases=3 bus1=X_3.1.2.3.0 kv=0.38 kW=241.52666070003156 pf=0.9 status=variable model=1 CVRwatts=0.8 CVRvars=3 Class=1 daily=334 conn=wye
New Load.Carga_IDSeta_3009 phases=3 bus1=X_3009.1.2.3.0 kv=0.38 kW=70.40365366194472 pf=0.9 status=variable model=1 CVRwatts=0.8 CVRvars=3 Class=1 daily=334 conn=wye
New Load.Carga_IDSeta_335 phases=3 bus1=X_335.1.2.3.0 kv=0.38 kW=9.625178106563117 pf=0.9 status=variable model=1 CVRwatts=0.8 CVRvars=3 Class=1 daily=335 conn=wye
New Load.Carga_IDSeta_47 phases=3 bus1=X_47.1.2.3.0 kv=0.38 kW=56.31762244744307 pf=0.9 status=variable model=1 CVRwatts=0.8 CVRvars=3 Class=1 daily=334 conn=wye
New Load.Carga_IDSeta_57 phases=3 bus1=X_57.1.2.3.0 kv=0.38 kW=243.6380058172775 pf=0.9 status=variable model=1 CVRwatts=0.8 CVRvars=3 Class=1 daily=334 conn=wye
New Load.Carga_IDSeta_59 phases=3 bus1=X_59.1.2.3.0 kv=0.38 kW=212.01506450880046 pf=0.9 status=variable model=1 CVRwatts=0.8 CVRvars=3 Class=1 daily=334 conn=wye
New Load.Carga_IDSeta_6 phases=3 bus1=X_6.1.2.3.0 kv=0.38 kW=184.79519291840452 pf=0.9 status=variable model=1 CVRwatts=0.8 CVRvars=3 Class=1 daily=334 conn=wye
New Load.Carga_IDSeta_60 phases=3 bus1=X_60.1.2.3.0 kv=0.38 kW=162.05408600795283 pf=0.9 status=variable model=1 CVRwatts=0.8 CVRvars=3 Class=1 daily=334 conn=wye
New Load.Carga_IDSeta_69 phases=3 bus1=X_69.1.2.3.0 kv=0.38 kW=191.28420621252985 pf=0.9 status=variable model=1 CVRwatts=0.8 CVRvars=3 Class=1 daily=334 conn=wye
New Load.Carga_IDSeta_7 phases=3 bus1=X_7.1.2.3.0 kv=0.38 kW=198.6722628188478 pf=0.9 status=variable model=1 CVRwatts=0.8 CVRvars=3 Class=1 daily=334 conn=wye
New Load.Carga_IDSeta_70 phases=3 bus1=X_70.1.2.3.0 kv=0.38 kW=108.83322946191574 pf=0.9 status=variable model=1 CVRwatts=0.8 CVRvars=3 Class=1 daily=334 conn=wye
New Load.Carga_IDSeta_71 phases=3 bus1=X_71.1.2.3.0 kv=0.38 kW=164.72267488700095 pf=0.9 status=variable model=1 CVRwatts=0.8 CVRvars=3 Class=1 daily=334 conn=wye
New Load.Carga_IDSeta_72 phases=3 bus1=X_72.1.2.3.0 kv=0.38 kW=104.04234793141204 pf=0.9 status=variable model=1 CVRwatts=0.8 CVRvars=3 Class=1 daily=334 conn=wye
New Load.Carga_IDSeta_74 phases=3 bus1=X_74.1.2.3.0 kv=0.38 kW=90.21828285209578 pf=0.9 status=variable model=1 CVRwatts=0.8 CVRvars=3 Class=1 daily=334 conn=wye
New Load.Carga_IDSeta_75 phases=3 bus1=X_75.1.2.3.0 kv=0.38 kW=73.99065299936649 pf=0.9 status=variable model=1 CVRwatts=0.8 CVRvars=3 Class=1 daily=334 conn=wye
New Load.Carga_IDSeta_76 phases=3 bus1=X_76.1.2.3.0 kv=0.38 kW=159.33045366081134 pf=0.9 status=variable model=1 CVRwatts=0.8 CVRvars=3 Class=1 daily=334 conn=wye
New Load.Carga_IDSeta_79 phases=3 bus1=X_79.1.2.3.0 kv=0.38 kW=93.82261068873213 pf=0.9 status=variable model=1 CVRwatts=0.8 CVRvars=3 Class=1 daily=334 conn=wye
New Load.Carga_IDSeta_8 phases=3 bus1=X_8.1.2.3.0 kv=0.38 kW=86.18176185857769 pf=0.9 status=variable model=1 CVRwatts=0.8 CVRvars=3 Class=1 daily=334 conn=wye
New Load.Carga_IDSeta_80 phases=3 bus1=X_80.1.2.3.0 kv=0.38 kW=129.77211129464024 pf=0.9 status=variable model=1 CVRwatts=0.8 CVRvars=3 Class=1 daily=334 conn=wye
New Load.Carga_IDSeta_81 phases=3 bus1=X_81.1.2.3.0 kv=0.38 kW=162.34129059258257 pf=0.9 status=variable model=1 CVRwatts=0.8 CVRvars=3 Class=1 daily=334 conn=wye
New Load.Carga_IDSeta_82 phases=3 bus1=X_82.1.2.3.0 kv=0.38 kW=34.66107572312859 pf=0.9 status=variable model=1 CVRwatts=0.8 CVRvars=3 Class=1 daily=334 conn=wye
New Load.Carga_IDSeta_84 phases=3 bus1=X_84.1.2.3.0 kv=0.38 kW=56.49294608655548 pf=0.9 status=variable model=1 CVRwatts=0.8 CVRvars=3 Class=1 daily=334 conn=wye
New Load.Carga_IDSeta_840 phases=3 bus1=X_840.1.2.3.0 kv=0.38 kW=45.67896363963287 pf=0.9 status=variable model=1 CVRwatts=0.8 CVRvars=3 Class=1 daily=334 conn=wye
New Load.Carga_IDSeta_89 phases=3 bus1=X_89.1.2.3.0 kv=0.38 kW=118.82865437888007 pf=0.9 status=variable model=1 CVRwatts=0.8 CVRvars=3 Class=1 daily=334 conn=wye
New Load.Carga_IDSeta_9 phases=3 bus1=X_9.1.2.3.0 kv=0.38 kW=168.31069354790588 pf=0.9 status=variable model=1 CVRwatts=0.8 CVRvars=3 Class=1 daily=334 conn=wye
New Load.Carga_IDSeta_91 phases=3 bus1=X_91.1.2.3.0 kv=0.38 kW=61.966713191401986 pf=0.9 status=variable model=1 CVRwatts=0.8 CVRvars=3 Class=1 daily=334 conn=wye
New Load.Carga_IDSeta_92 phases=3 bus1=X_92.1.2.3.0 kv=0.38 kW=5.510462750242123 pf=0.9 status=variable model=1 CVRwatts=0.8 CVRvars=3 Class=1 daily=334 conn=wye
New Load.Carga_IDSeta_93 phases=3 bus1=X_93.1.2.3.0 kv=0.38 kW=3.3291104961692146 pf=0.9 status=variable model=1 CVRwatts=0.8 CVRvars=3 Class=1 daily=334 conn=wye
New Load.Carga_IDSeta_96 phases=3 bus1=X_96.1.2.3.0 kv=0.38 kW=157.91155537218074 pf=0.9 status=variable model=1 CVRwatts=0.8 CVRvars=3 Class=1 daily=334 conn=wye
